*EXP.DETAILS: KEUA1001SN 

*GENERAL
@PEOPLE
-99
@ADDRESS
-99
@SITE
-99
@ PAREA  PRNO  PLEN  PLDR  PLSP  PLAY HAREA  HRNO  HLEN  HARM.........
    -99   -99   -99   -99   -99   -99   -99   -99   -99  null

*TREATMENTS                        -------------FACTOR LEVELS------------
@N R O C TNAME.................... CU FL SA IC MP MI MF MR MC MT ME MH SM
 1 1 0 0 DSSATTools                 1  1  0  1  1  1  1  0  0  0  0  0  1

*CULTIVARS
@C CR INGENO CNAME
 1 MZ KY0011 H614

*FIELDS
@L ID_FIELD WSTA....  FLSA  FLOB  FLDT  FLDD  FLDS  FLST SLTX  SLDP  ID_SOIL    FLNAME
 1 KEUA1011 KEUA1011   -99   -99   -99   -99   -99   -99 -99    -99  KE04624982 -99
@L ...........XCRD ...........YCRD .....ELEV .............AREA .SLEN .FLWR .SLAS FLHST FHDUR
 1            0.76           35.25       -99               -99   -99   -99   -99   -99   -99
@L PMALB  BDWD  BDHT
 1   -99   -99   -99

*INITIAL CONDITIONS
@C   PCR ICDAT  ICRT  ICND  ICRN  ICRE  ICWD ICRES ICREN ICREP ICRIP ICRID ICNAME
 1    MZ 10079   100   -99     1     1   -99  1000   0.5   -99   100     5 Initial
@C  ICBL  SH2O  SNH4  SNO3
 1     5 0.250     1     5
 1    15 0.250     1     5
 1    30 0.250     1     5
 1    60 0.250     1     5
 1    90 0.250     1     5
 1   120 0.250     1     5

*PLANTING DETAILS
@P PDATE EDATE  PPOP  PPOE  PLME  PLDS  PLRS  PLRD  PLDP  PLWT  PAGE  PENV  PLPH  SPRL                        PLNAME
 1 10079   -99   4.4   4.4     S     R    75   -99     5   -99   -99   -99   -99   -99                        -99

*IRRIGATION AND WATER MANAGEMENT
@I  EFIR  IDEP  ITHR  IEPT  IOFF  IAME  IAMT IRNAME
 1   -99   -99   -99   -99   -99   -99   -99 -99
@I IDATE  IROP IRVAL
 1   -99   -99     0

*FERTILIZERS (INORGANIC)
@F FDATE  FMCD  FACD  FDEP  FAMN  FAMP  FAMK  FAMC  FAMO  FOCD FERNAME
 1 10079 FE006 AP004     5  22.5  25.1     0   -99   -99   -99 Fertilizer_2
 1 10110 FE011 AP001     0    39     0     0   -99   -99   -99 Fertilizer_2

*SIMULATION CONTROLS
@N GENERAL     NYERS NREPS START SDATE RSEED SNAME.................... SMODEL
 1 GE              1     1     S 10001  2150 Maize Simulation          MZCE
@N OPTIONS     WATER NITRO SYMBI PHOSP POTAS DISES  CHEM  TILL   CO2
 1 OP              Y     Y     N     N     N     N     N     N     M
@N METHODS     WTHER INCON LIGHT EVAPO INFIL PHOTO HYDRO NSWIT MESOM MESEV MESOL
 1 ME              M     M     E     F     S     L     R     1     P     S     2
@N MANAGEMENT  PLANT IRRIG FERTI RESID HARVS
 1 MA              R     N     R     D     M
@N OUTPUTS     FNAME OVVEW SUMRY FROPT GROUT CAOUT WAOUT NIOUT MIOUT DIOUT VBOSE CHOUT OPOUT FMOPT
 1 OU              N     Y     Y     1     Y     N     Y     Y     N     N     Y     N     N     A

@  AUTOMATIC MANAGEMENT
@N PLANTING    PFRST PLAST PH2OL PH2OU PH2OD PSTMX PSTMN
 1 PL          10079 10079    40   100    30    40    10
@N IRRIGATION  IMDEP ITHRL ITHRU IROFF IMETH IRAMT IREFF
 1 IR             30    70   100 GS000 IR001    10     1
@N NITROGEN    NMDEP NMTHR NAMNT NCODE NAOFF
 1 NI             30    50    25 FE001 GS000
@N RESIDUES    RIPCN RTIME RIDEP
 1 RE            100     1    20
@N HARVEST     HFRST HLAST HPCNP HPCNR HMFRQ HMGDD HMCUT HMMOW HRSPL HMVS
 1 HA              0 10079   100     0   -99   -99   -99   -99   -99  -99

